41

C	-2.779051	0.745300	-1.833198
N	-1.775576	0.837359	-0.807820
C	-1.446087	2.008271	-0.246353
C	-0.472128	1.782180	0.892925
C	-0.104700	0.308962	0.824081
C	1.220414	-0.054991	0.361304
N	1.833147	-1.194326	0.730080
C	1.306075	-2.167142	1.663301
C	2.975216	-1.366465	-0.008692
C	3.054926	-0.323334	-0.860684
N	1.957169	0.470338	-0.637885
C	1.667818	1.660190	-1.414169
O	-1.850318	3.114454	-0.585387
C	-1.279252	-0.408572	-0.175290
C	-2.307035	-1.068162	0.654642
C	-2.397659	-2.430644	0.762643
C	-1.627271	-3.303800	-0.020099
C	-0.858212	-2.712521	-1.032833
C	-0.730076	-1.354755	-1.167036
H	-2.413901	0.132019	-2.659394
H	-3.006036	1.751524	-2.181952
H	-3.686922	0.278344	-1.441314
H	-0.261073	-0.176982	1.783526
H	1.034823	-1.682456	2.600615
H	0.427012	-2.663197	1.234201
H	2.084092	-2.902329	1.857699
H	3.621402	-2.215437	0.131439
H	3.790735	-0.074089	-1.605543
H	2.253018	1.611093	-2.330071
H	0.612907	1.686875	-1.677864
H	1.938199	2.563094	-0.867221
H	-2.934583	-0.428016	1.268738
H	-3.119960	-2.841620	1.464073
H	-0.360458	-3.347068	-1.762738
H	-0.144285	-0.944394	-1.985589
H	-1.746082	-4.377515	0.045780
C	-1.111334	2.179450	2.218329
H	-1.970711	1.544174	2.444390
H	-0.391291	2.081659	3.033738
H	-1.451677	3.215214	2.177232
H	0.382603	2.440078	0.725351
